Metadata-Version: 1.1
Name: PyTurbSim
Version: 0.3.8
Summary: Python implementation of TurbSim
Home-page: http://lkilcher.github.io/pyTurbSim
Author: Levi Kilcher
Author-email: levi.kilcher@nrel.gov
License: UNKNOWN
Description: UNKNOWN
Platform: UNKNOWN
Requires: numpy
